 [General]
network = Network
#sim-time-limit = ${simtime=1000}s
repeat = 10
**.networkConfiguratorModule = ""
**.ppp[*].numInputHooks = 1
**.ppp[*].inputHook[0].typename = "ThruputMeter"
**.ppp[*].inputHook[0].maxInterval = 1s
**.ppp[*].inputHook[0].batchSize = 10000
**.ppp[*].inputHook[0].**.vector-recording = true
**.vector-recording = false

# Client settings
**.client.numTcpApps = 1
**.client.tcpApp[0].typename = "TCPSessionApp"
**.client.tcpApp[0].active = true 
**.client.tcpApp[0].localPort = -1
**.client.tcpApp[0].connectAddress = "server"
**.client.tcpApp[0].connectPort = 1000
**.client.tcpApp[0].tOpen = 0s//
**.client.tcpApp[0].tSend = 0s //
**.client.tcpApp[0].sendBytes = 5000MiB
**.client.tcpApp[0].tClose = 0s //

# [...]
# Server settings
**.server.numTcpApps = 1
**.server.tcpApp[0].typename = "TCPSinkApp"
**.server.tcpApp[0].localPort = 1000
# [...]
# TCP settings
**.tcpType = "TCP"
**.tcp.mss = 1460
**.tcp.advertisedWindow = 22*this.mss

[Config sim_10s]
sim-time-limit = ${simtime=10}s

[Config sim_100s]
sim-time-limit = ${simtime=100}s

[Config sim_1000s]
sim-time-limit = ${simtime=1000}s




